<?xml version="1.0" encoding="UTF-8"?>

<!-- generated on 2026-01-27T21:48:17.603034-08:00 by Eclipse SUMO netedit 1.25.0
<neteditConfiguration xmlns:xsi="http://www.w3.org/2001/XMLSchema-instance" xsi:noNamespaceSchemaLocation="http://sumo.dlr.de/xsd/neteditConfiguration.xsd">

    <input>
        <sumo-net-file value="C:\Users\Ahuma\Desktop\CS175\H_I_SHAPED.net.xml"/>
    </input>

    <output>
        <output-file value="C:\Users\Ahuma\Desktop\CS175\H_I_SHAPED.net.xml"/>
    </output>

    <processing>
        <geometry.min-radius.fix.railways value="false"/>
        <geometry.avoid-overlap value="false"/>
        <geometry.max-grade.fix value="false"/>
        <offset.disable-normalization value="true"/>
        <lefthand value="0"/>
    </processing>

    <junctions>
        <no-turnarounds value="true"/>
        <junctions.corner-detail value="5"/>
        <junctions.limit-turn-speed value="5.50"/>
        <rectangular-lane-cut value="0"/>
    </junctions>

    <pedestrian>
        <walkingareas value="0"/>
    </pedestrian>

</neteditConfiguration>
-->

<net version="1.20" junctionCornerDetail="5" limitTurnSpeed="5.50" avoidOverlap="0" xmlns:xsi="http://www.w3.org/2001/XMLSchema-instance" xsi:noNamespaceSchemaLocation="http://sumo.dlr.de/xsd/net_file.xsd">

    <location netOffset="0.00,0.00" convBoundary="-200.00,-100.00,200.00,100.00" origBoundary="-10000000000.00,-10000000000.00,10000000000.00,10000000000.00" projParameter="!"/>

    <edge id=":3_0" function="internal">
        <lane id=":3_0_0" index="0" speed="13.89" length="8.54" shape="104.00,104.80 101.54,105.30 100.00,106.40 98.46,107.50 96.00,108.00"/>
        <lane id=":3_0_1" index="1" speed="13.89" length="8.54" shape="104.00,101.60 101.54,102.10 100.00,103.20 98.46,104.30 96.00,104.80"/>
        <lane id=":3_0_2" index="2" speed="13.89" length="8.54" shape="104.00,101.60 96.00,101.60"/>
    </edge>
    <edge id=":3_3" function="internal">
        <lane id=":3_3_0" index="0" speed="13.89" length="8.00" shape="96.00,92.00 104.00,92.00"/>
        <lane id=":3_3_1" index="1" speed="13.89" length="8.00" shape="96.00,95.20 104.00,95.20"/>
        <lane id=":3_3_2" index="2" speed="13.89" length="8.00" shape="96.00,98.40 104.00,98.40"/>
    </edge>
    <edge id=":J11_0" function="internal">
        <lane id=":J11_0_0" index="0" speed="13.89" length="8.00" shape="-96.00,-92.00 -104.00,-92.00"/>
        <lane id=":J11_0_1" index="1" speed="13.89" length="8.00" shape="-96.00,-95.20 -104.00,-95.20"/>
        <lane id=":J11_0_2" index="2" speed="13.89" length="8.00" shape="-96.00,-98.40 -104.00,-98.40"/>
    </edge>
    <edge id=":J11_3" function="internal">
        <lane id=":J11_3_0" index="0" speed="13.89" length="8.54" shape="-104.00,-104.80 -101.54,-105.30 -100.00,-106.40 -98.46,-107.50 -96.00,-108.00"/>
        <lane id=":J11_3_1" index="1" speed="13.89" length="8.54" shape="-104.00,-101.60 -101.54,-102.10 -100.00,-103.20 -98.46,-104.30 -96.00,-104.80"/>
        <lane id=":J11_3_2" index="2" speed="13.89" length="8.54" shape="-104.00,-101.60 -96.00,-101.60"/>
    </edge>
    <edge id=":J13_0" function="internal">
        <lane id=":J13_0_0" index="0" speed="13.89" length="8.54" shape="104.00,-95.20 101.54,-94.70 100.00,-93.60 98.46,-92.50 96.00,-92.00"/>
        <lane id=":J13_0_1" index="1" speed="13.89" length="8.54" shape="104.00,-98.40 101.54,-97.90 100.00,-96.80 98.46,-95.70 96.00,-95.20"/>
        <lane id=":J13_0_2" index="2" speed="13.89" length="8.54" shape="104.00,-98.40 96.00,-98.40"/>
    </edge>
    <edge id=":J13_3" function="internal">
        <lane id=":J13_3_0" index="0" speed="13.89" length="8.00" shape="96.00,-108.00 104.00,-108.00"/>
        <lane id=":J13_3_1" index="1" speed="13.89" length="8.00" shape="96.00,-104.80 104.00,-104.80"/>
        <lane id=":J13_3_2" index="2" speed="13.89" length="8.00" shape="96.00,-101.60 104.00,-101.60"/>
    </edge>
    <edge id=":J8_0" function="internal">
        <lane id=":J8_0_0" index="0" speed="13.89" length="27.20" shape="13.60,108.00 -13.60,108.00"/>
        <lane id=":J8_0_1" index="1" speed="13.89" length="27.20" shape="13.60,104.80 -13.60,104.80"/>
    </edge>
    <edge id=":J8_2" function="internal">
        <lane id=":J8_2_0" index="0" speed="11.36" length="13.36" shape="13.60,104.80 5.55,103.65 1.06,100.96"/>
    </edge>
    <edge id=":J8_3" function="internal">
        <lane id=":J8_3_0" index="0" speed="13.89" length="27.20" shape="13.60,101.60 -13.60,101.60"/>
    </edge>
    <edge id=":J8_4" function="internal">
        <lane id=":J8_4_0" index="0" speed="10.36" length="5.01" shape="13.60,101.60 8.64,100.89"/>
    </edge>
    <edge id=":J8_15" function="internal">
        <lane id=":J8_15_0" index="0" speed="11.36" length="16.31" shape="1.06,100.96 -0.20,100.20 -3.65,94.45 -4.80,86.40"/>
    </edge>
    <edge id=":J8_16" function="internal">
        <lane id=":J8_16_0" index="0" speed="10.36" length="19.50" shape="8.64,100.89 6.95,100.65 2.20,97.80 -0.65,93.05 -1.60,86.40"/>
    </edge>
    <edge id=":J8_5" function="internal">
        <lane id=":J8_5_0" index="0" speed="6.51" length="9.03" shape="8.00,86.40 8.35,88.85 9.40,90.60 11.15,91.65 13.60,92.00"/>
        <lane id=":J8_5_1" index="1" speed="8.00" length="14.19" shape="4.80,86.40 5.35,90.25 7.00,93.00 9.75,94.65 13.60,95.20"/>
    </edge>
    <edge id=":J8_7" function="internal">
        <lane id=":J8_7_0" index="0" speed="11.36" length="29.67" shape="4.80,86.40 3.65,94.45 0.20,100.20 -5.55,103.65 -13.60,104.80"/>
        <lane id=":J8_7_1" index="1" speed="10.36" length="24.51" shape="1.60,86.40 0.65,93.05 -2.20,97.80 -6.95,100.65 -13.60,101.60"/>
    </edge>
    <edge id=":J8_9" function="internal">
        <lane id=":J8_9_0" index="0" speed="6.51" length="9.03" shape="-13.60,92.00 -11.15,91.65 -9.40,90.60 -8.35,88.85 -8.00,86.40"/>
    </edge>
    <edge id=":J8_10" function="internal">
        <lane id=":J8_10_0" index="0" speed="13.89" length="27.20" shape="-13.60,92.00 13.60,92.00"/>
    </edge>
    <edge id=":J8_11" function="internal">
        <lane id=":J8_11_0" index="0" speed="8.00" length="4.07" shape="-13.60,95.20 -9.75,94.65 -9.60,94.56"/>
        <lane id=":J8_11_1" index="1" speed="8.67" length="5.56" shape="-13.60,95.20 -8.35,94.65 -8.09,94.54"/>
    </edge>
    <edge id=":J8_13" function="internal">
        <lane id=":J8_13_0" index="0" speed="13.89" length="27.20" shape="-13.60,95.20 13.60,95.20"/>
        <lane id=":J8_13_1" index="1" speed="13.89" length="27.20" shape="-13.60,98.40 13.60,98.40"/>
    </edge>
    <edge id=":J8_17" function="internal">
        <lane id=":J8_17_0" index="0" speed="8.00" length="10.13" shape="-9.60,94.56 -7.00,93.00 -5.35,90.25 -4.80,86.40"/>
        <lane id=":J8_17_1" index="0" speed="8.67" length="11.29" shape="-8.09,94.54 -4.60,93.00 -2.35,90.25 -1.60,86.40"/>
    </edge>
    <edge id=":J9_0" function="internal">
        <lane id=":J9_0_0" index="0" speed="6.51" length="9.03" shape="-8.00,-86.40 -8.35,-88.85 -9.40,-90.60 -11.15,-91.65 -13.60,-92.00"/>
    </edge>
    <edge id=":J9_1" function="internal">
        <lane id=":J9_1_0" index="0" speed="11.36" length="29.67" shape="-4.80,-86.40 -3.65,-94.45 -0.20,-100.20 5.55,-103.65 13.60,-104.80"/>
        <lane id=":J9_1_1" index="1" speed="10.36" length="24.51" shape="-1.60,-86.40 -0.65,-93.05 2.20,-97.80 6.95,-100.65 13.60,-101.60"/>
    </edge>
    <edge id=":J9_3" function="internal">
        <lane id=":J9_3_0" index="0" speed="6.51" length="9.03" shape="13.60,-92.00 11.15,-91.65 9.40,-90.60 8.35,-88.85 8.00,-86.40"/>
    </edge>
    <edge id=":J9_4" function="internal">
        <lane id=":J9_4_0" index="0" speed="13.89" length="27.20" shape="13.60,-92.00 -13.60,-92.00"/>
        <lane id=":J9_4_1" index="1" speed="13.89" length="27.20" shape="13.60,-95.20 -13.60,-95.20"/>
        <lane id=":J9_4_2" index="2" speed="13.89" length="27.20" shape="13.60,-98.40 -13.60,-98.40"/>
    </edge>
    <edge id=":J9_7" function="internal">
        <lane id=":J9_7_0" index="0" speed="13.89" length="27.20" shape="-13.60,-108.00 13.60,-108.00"/>
        <lane id=":J9_7_1" index="1" speed="13.89" length="27.20" shape="-13.60,-104.80 13.60,-104.80"/>
        <lane id=":J9_7_2" index="2" speed="13.89" length="27.20" shape="-13.60,-101.60 13.60,-101.60"/>
    </edge>
    <edge id=":J9_10" function="internal">
        <lane id=":J9_10_0" index="0" speed="10.88" length="6.03" shape="-13.60,-101.60 -7.62,-100.89"/>
        <lane id=":J9_10_1" index="1" speed="10.36" length="5.01" shape="-13.60,-101.60 -8.64,-100.89"/>
    </edge>
    <edge id=":J9_12" function="internal">
        <lane id=":J9_12_0" index="0" speed="10.88" length="21.12" shape="-7.62,-100.89 -5.55,-100.65 0.20,-97.80 3.65,-93.05 4.80,-86.40"/>
        <lane id=":J9_12_1" index="0" speed="10.36" length="19.50" shape="-8.64,-100.89 -6.95,-100.65 -2.20,-97.80 0.65,-93.05 1.60,-86.40"/>
    </edge>

    <edge id="-E10" from="J13" to="J9" priority="3">
        <lane id="-E10_0" index="0" speed="13.89" length="82.40" shape="96.00,-92.00 13.60,-92.00"/>
        <lane id="-E10_1" index="1" speed="13.89" length="82.40" shape="96.00,-95.20 13.60,-95.20"/>
        <lane id="-E10_2" index="2" speed="13.89" length="82.40" shape="96.00,-98.40 13.60,-98.40"/>
    </edge>
    <edge id="-E11" from="J14" to="J13" priority="3">
        <lane id="-E11_0" index="0" speed="13.89" length="96.00" shape="200.00,-95.20 104.00,-95.20"/>
        <lane id="-E11_1" index="1" speed="13.89" length="96.00" shape="200.00,-98.40 104.00,-98.40"/>
    </edge>
    <edge id="-E3" from="4" to="3" priority="3">
        <lane id="-E3_0" index="0" speed="13.89" length="96.00" shape="200.00,104.80 104.00,104.80"/>
        <lane id="-E3_1" index="1" speed="13.89" length="96.00" shape="200.00,101.60 104.00,101.60"/>
    </edge>
    <edge id="-E4" from="J9" to="J8" priority="2">
        <lane id="-E4_0" index="0" speed="13.89" length="172.80" shape="8.00,-86.40 8.00,86.40"/>
        <lane id="-E4_1" index="1" speed="13.89" length="172.80" shape="4.80,-86.40 4.80,86.40"/>
        <lane id="-E4_2" index="2" speed="13.89" length="172.80" shape="1.60,-86.40 1.60,86.40"/>
    </edge>
    <edge id="-E5" from="J11" to="J10" priority="3">
        <lane id="-E5_0" index="0" speed="13.89" length="96.00" shape="-104.00,-92.00 -200.00,-92.00"/>
        <lane id="-E5_1" index="1" speed="13.89" length="96.00" shape="-104.00,-95.20 -200.00,-95.20"/>
        <lane id="-E5_2" index="2" speed="13.89" length="96.00" shape="-104.00,-98.40 -200.00,-98.40"/>
    </edge>
    <edge id="-E7" from="J9" to="J11" priority="3">
        <lane id="-E7_0" index="0" speed="13.89" length="82.40" shape="-13.60,-92.00 -96.00,-92.00"/>
        <lane id="-E7_1" index="1" speed="13.89" length="82.40" shape="-13.60,-95.20 -96.00,-95.20"/>
        <lane id="-E7_2" index="2" speed="13.89" length="82.40" shape="-13.60,-98.40 -96.00,-98.40"/>
    </edge>
    <edge id="-E9" from="3" to="J8" priority="3">
        <lane id="-E9_0" index="0" speed="13.89" length="82.40" shape="96.00,108.00 13.60,108.00"/>
        <lane id="-E9_1" index="1" speed="13.89" length="82.40" shape="96.00,104.80 13.60,104.80"/>
        <lane id="-E9_2" index="2" speed="13.89" length="82.40" shape="96.00,101.60 13.60,101.60"/>
    </edge>
    <edge id="D1" from="11" to="1" priority="3">
        <lane id="D1_0" index="0" speed="13.89" length="96.00" shape="-104.00,108.00 -200.00,108.00"/>
        <lane id="D1_1" index="1" speed="13.89" length="96.00" shape="-104.00,104.80 -200.00,104.80"/>
        <lane id="D1_2" index="2" speed="13.89" length="96.00" shape="-104.00,101.60 -200.00,101.60"/>
    </edge>
    <edge id="D2" from="1" to="11" priority="3">
        <lane id="D2_0" index="0" speed="13.89" length="96.00" shape="-200.00,95.20 -104.00,95.20"/>
        <lane id="D2_1" index="1" speed="13.89" length="96.00" shape="-200.00,98.40 -104.00,98.40"/>
    </edge>
    <edge id="E10" from="J9" to="J13" priority="3">
        <lane id="E10_0" index="0" speed="13.89" length="82.40" shape="13.60,-108.00 96.00,-108.00"/>
        <lane id="E10_1" index="1" speed="13.89" length="82.40" shape="13.60,-104.80 96.00,-104.80"/>
        <lane id="E10_2" index="2" speed="13.89" length="82.40" shape="13.60,-101.60 96.00,-101.60"/>
    </edge>
    <edge id="E11" from="J13" to="J14" priority="3">
        <lane id="E11_0" index="0" speed="13.89" length="96.00" shape="104.00,-108.00 200.00,-108.00"/>
        <lane id="E11_1" index="1" speed="13.89" length="96.00" shape="104.00,-104.80 200.00,-104.80"/>
        <lane id="E11_2" index="2" speed="13.89" length="96.00" shape="104.00,-101.60 200.00,-101.60"/>
    </edge>
    <edge id="E3" from="3" to="4" priority="3">
        <lane id="E3_0" index="0" speed="13.89" length="96.00" shape="104.00,92.00 200.00,92.00"/>
        <lane id="E3_1" index="1" speed="13.89" length="96.00" shape="104.00,95.20 200.00,95.20"/>
        <lane id="E3_2" index="2" speed="13.89" length="96.00" shape="104.00,98.40 200.00,98.40"/>
    </edge>
    <edge id="E4" from="J8" to="J9" priority="2">
        <lane id="E4_0" index="0" speed="13.89" length="172.80" shape="-8.00,86.40 -8.00,-86.40"/>
        <lane id="E4_1" index="1" speed="13.89" length="172.80" shape="-4.80,86.40 -4.80,-86.40"/>
        <lane id="E4_2" index="2" speed="13.89" length="172.80" shape="-1.60,86.40 -1.60,-86.40"/>
    </edge>
    <edge id="E5" from="J10" to="J11" priority="3">
        <lane id="E5_0" index="0" speed="13.89" length="96.00" shape="-200.00,-104.80 -104.00,-104.80"/>
        <lane id="E5_1" index="1" speed="13.89" length="96.00" shape="-200.00,-101.60 -104.00,-101.60"/>
    </edge>
    <edge id="E7" from="J11" to="J9" priority="3">
        <lane id="E7_0" index="0" speed="13.89" length="82.40" shape="-96.00,-108.00 -13.60,-108.00"/>
        <lane id="E7_1" index="1" speed="13.89" length="82.40" shape="-96.00,-104.80 -13.60,-104.80"/>
        <lane id="E7_2" index="2" speed="13.89" length="82.40" shape="-96.00,-101.60 -13.60,-101.60"/>
    </edge>
    <edge id="E9" from="J8" to="3" priority="3">
        <lane id="E9_0" index="0" speed="13.89" length="82.40" shape="13.60,92.00 96.00,92.00"/>
        <lane id="E9_1" index="1" speed="13.89" length="82.40" shape="13.60,95.20 96.00,95.20"/>
        <lane id="E9_2" index="2" speed="13.89" length="82.40" shape="13.60,98.40 96.00,98.40"/>
    </edge>
    <edge id="L1" from="J8" to="11" priority="3">
        <lane id="L1_0" index="0" speed="13.89" length="82.40" shape="-13.60,108.00 -96.00,108.00"/>
        <lane id="L1_1" index="1" speed="13.89" length="82.40" shape="-13.60,104.80 -96.00,104.80"/>
        <lane id="L1_2" index="2" speed="13.89" length="82.40" shape="-13.60,101.60 -96.00,101.60"/>
    </edge>
    <edge id="L2" from="11" to="J8" priority="3">
        <lane id="L2_0" index="0" speed="13.89" length="82.40" shape="-96.00,92.00 -13.60,92.00"/>
        <lane id="L2_1" index="1" speed="13.89" length="82.40" shape="-96.00,95.20 -13.60,95.20"/>
        <lane id="L2_2" index="2" speed="13.89" length="82.40" shape="-96.00,98.40 -13.60,98.40"/>
    </edge>

    <tlLogic id="J8" type="static" programID="0" offset="0">
        <phase duration="42" state="GGgGgrrrrGGggGG"/>
        <phase duration="3"  state="yyyyyrrrrGyggyy"/>
        <phase duration="42" state="rrrrrGGGGGrGGrr"/>
        <phase duration="3"  state="rrrrryyyyGryyrr"/>
    </tlLogic>

    <junction id="1" type="dead_end" x="-200.00" y="100.00" incLanes="D1_0 D1_1 D1_2" intLanes="" shape="-118.00,119.04 -117.95,115.84 -118.00,119.04" customShape="1"/>
    <junction id="11" type="dead_end" x="-100.00" y="100.00" incLanes="L1_0 L1_1 L1_2 D2_0 D2_1" intLanes="" shape="-96.00,109.60 -96.00,90.40 -99.03,91.23 -100.97,92.77 -102.21,93.36 -104.00,93.60 -104.00,109.60"/>
    <junction id="3" type="priority" x="100.00" y="100.00" incLanes="-E3_0 -E3_1 E9_0 E9_1 E9_2" intLanes=":3_0_0 :3_0_1 :3_0_2 :3_3_0 :3_3_1 :3_3_2" shape="104.00,106.40 104.00,90.40 96.00,90.40 96.00,109.60 99.03,108.77 100.97,107.23 102.21,106.64">
        <request index="0" response="000000" foes="000000" cont="0"/>
        <request index="1" response="000000" foes="000000" cont="0"/>
        <request index="2" response="000000" foes="000000" cont="0"/>
        <request index="3" response="000000" foes="000000" cont="0"/>
        <request index="4" response="000000" foes="000000" cont="0"/>
        <request index="5" response="000000" foes="000000" cont="0"/>
    </junction>
    <junction id="4" type="dead_end" x="200.00" y="100.00" incLanes="E3_0 E3_1 E3_2" intLanes="" shape="200.00,100.00 200.00,90.40 200.00,100.00"/>
    <junction id="J10" type="dead_end" x="-200.00" y="-100.00" incLanes="-E5_0 -E5_1 -E5_2" intLanes="" shape="-200.00,-100.00 -200.00,-90.40 -200.00,-100.00"/>
    <junction id="J11" type="priority" x="-100.00" y="-100.00" incLanes="-E7_0 -E7_1 -E7_2 E5_0 E5_1" intLanes=":J11_0_0 :J11_0_1 :J11_0_2 :J11_3_0 :J11_3_1 :J11_3_2" shape="-96.00,-90.40 -96.00,-109.60 -99.03,-108.77 -100.97,-107.23 -102.21,-106.64 -104.00,-106.40 -104.00,-90.40">
        <request index="0" response="000000" foes="000000" cont="0"/>
        <request index="1" response="000000" foes="000000" cont="0"/>
        <request index="2" response="000000" foes="000000" cont="0"/>
        <request index="3" response="000000" foes="000000" cont="0"/>
        <request index="4" response="000000" foes="000000" cont="0"/>
        <request index="5" response="000000" foes="000000" cont="0"/>
    </junction>
    <junction id="J13" type="priority" x="100.00" y="-100.00" incLanes="-E11_0 -E11_1 E10_0 E10_1 E10_2" intLanes=":J13_0_0 :J13_0_1 :J13_0_2 :J13_3_0 :J13_3_1 :J13_3_2" shape="104.00,-93.60 104.00,-109.60 96.00,-109.60 96.00,-90.40 99.03,-91.23 100.97,-92.77 102.21,-93.36">
        <request index="0" response="000000" foes="000000" cont="0"/>
        <request index="1" response="000000" foes="000000" cont="0"/>
        <request index="2" response="000000" foes="000000" cont="0"/>
        <request index="3" response="000000" foes="000000" cont="0"/>
        <request index="4" response="000000" foes="000000" cont="0"/>
        <request index="5" response="000000" foes="000000" cont="0"/>
    </junction>
    <junction id="J14" type="dead_end" x="200.00" y="-100.00" incLanes="E11_0 E11_1 E11_2" intLanes="" shape="200.00,-100.00 200.00,-109.60 200.00,-100.00"/>
    <junction id="J8" type="traffic_light" x="0.00" y="100.00" incLanes="-E9_0 -E9_1 -E9_2 -E4_0 -E4_1 -E4_2 L2_0 L2_1 L2_2" intLanes=":J8_0_0 :J8_0_1 :J8_15_0 :J8_3_0 :J8_16_0 :J8_5_0 :J8_5_1 :J8_7_0 :J8_7_1 :J8_9_0 :J8_10_0 :J8_17_0 :J8_17_1 :J8_13_0 :J8_13_1" shape="13.60,109.60 13.60,90.40 11.38,89.96 10.60,89.40 10.04,88.62 9.71,87.62 9.60,86.40 -9.60,86.40 -10.04,88.62 -10.60,89.40 -11.38,89.96 -12.38,90.29 -13.60,90.40 -13.60,109.60">
        <request index="0"  response="000000000000000" foes="000000110000000" cont="0"/>
        <request index="1"  response="000000000000000" foes="000000110000000" cont="0"/>
        <request index="2"  response="111111000001000" foes="111111110001000" cont="1"/>
        <request index="3"  response="000000000000000" foes="000000110000100" cont="0"/>
        <request index="4"  response="111111000000000" foes="111111110000000" cont="1"/>
        <request index="5"  response="110010000000000" foes="110010000000000" cont="0"/>
        <request index="6"  response="110010000000000" foes="110010000000000" cont="0"/>
        <request index="7"  response="110010000011111" foes="110010000011111" cont="0"/>
        <request index="8"  response="110010000011111" foes="110010000011111" cont="0"/>
        <request index="9"  response="000000000000000" foes="000000000010100" cont="0"/>
        <request index="10" response="000000000000000" foes="001100111110100" cont="0"/>
        <request index="11" response="000010000000000" foes="000010000010100" cont="1"/>
        <request index="12" response="000010000000000" foes="000010000010100" cont="1"/>
        <request index="13" response="000000000000000" foes="000000111110100" cont="0"/>
        <request index="14" response="000000000000000" foes="000000111110100" cont="0"/>
    </junction>
    <junction id="J9" type="priority" x="0.00" y="-100.00" incLanes="E4_0 E4_1 E4_2 -E10_0 -E10_1 -E10_2 E7_0 E7_1 E7_2" intLanes=":J9_0_0 :J9_1_0 :J9_1_1 :J9_3_0 :J9_4_0 :J9_4_1 :J9_4_2 :J9_7_0 :J9_7_1 :J9_7_2 :J9_12_0 :J9_12_1" shape="-9.60,-86.40 9.60,-86.40 10.04,-88.62 10.60,-89.40 11.38,-89.96 12.38,-90.29 13.60,-90.40 13.60,-109.60 -13.60,-109.60 -13.60,-90.40 -11.38,-89.96 -10.60,-89.40 -10.04,-88.62 -9.71,-87.62">
        <request index="0"  response="000001110000" foes="000001110000" cont="0"/>
        <request index="1"  response="111111110000" foes="111111110000" cont="0"/>
        <request index="2"  response="111111110000" foes="111111110000" cont="0"/>
        <request index="3"  response="000000000000" foes="000000000000" cont="0"/>
        <request index="4"  response="000000000000" foes="110000000111" cont="0"/>
        <request index="5"  response="000000000000" foes="110000000111" cont="0"/>
        <request index="6"  response="000000000000" foes="110000000111" cont="0"/>
        <request index="7"  response="000000000000" foes="000000000110" cont="0"/>
        <request index="8"  response="000000000000" foes="000000000110" cont="0"/>
        <request index="9"  response="000000000000" foes="000000000110" cont="0"/>
        <request index="10" response="000001110000" foes="000001110110" cont="1"/>
        <request index="11" response="000001110000" foes="000001110110" cont="1"/>
    </junction>

    <junction id=":J8_15_0" type="internal" x="1.06" y="100.96" incLanes=":J8_2_0 L2_0 L2_1 L2_2" intLanes=":J8_3_0 :J8_7_0 :J8_7_1 :J8_9_0 :J8_10_0 :J8_11_0 :J8_11_1 :J8_13_0 :J8_13_1"/>
    <junction id=":J8_16_0" type="internal" x="8.64" y="100.89" incLanes=":J8_4_0 L2_0 L2_1 L2_2" intLanes=":J8_7_0 :J8_7_1 :J8_9_0 :J8_10_0 :J8_11_0 :J8_11_1 :J8_13_0 :J8_13_1"/>
    <junction id=":J8_17_0" type="internal" x="-9.60" y="94.56" incLanes=":J8_11_0 L2_0" intLanes=":J8_2_0 :J8_4_0 :J8_10_0"/>
    <junction id=":J8_17_1" type="internal" x="-8.09" y="94.54" incLanes=":J8_11_1 L2_0" intLanes=":J8_2_0 :J8_4_0 :J8_10_0"/>
    <junction id=":J9_12_0" type="internal" x="-7.62" y="-100.89" incLanes=":J9_10_0 -E10_0 -E10_1 -E10_2" intLanes=":J9_1_0 :J9_1_1 :J9_4_0 :J9_4_1 :J9_4_2"/>
    <junction id=":J9_12_1" type="internal" x="-8.64" y="-100.89" incLanes=":J9_10_1 -E10_0 -E10_1 -E10_2" intLanes=":J9_1_0 :J9_1_1 :J9_4_0 :J9_4_1 :J9_4_2"/>

    <connection from="-E10" to="-E4" fromLane="0" toLane="0" via=":J9_3_0" dir="r" state="M"/>
    <connection from="-E10" to="-E7" fromLane="0" toLane="0" via=":J9_4_0" dir="s" state="M"/>
    <connection from="-E10" to="-E7" fromLane="1" toLane="1" via=":J9_4_1" dir="s" state="M"/>
    <connection from="-E10" to="-E7" fromLane="2" toLane="2" via=":J9_4_2" dir="s" state="M"/>
    <connection from="-E11" to="-E10" fromLane="0" toLane="0" via=":J13_0_0" dir="s" state="M"/>
    <connection from="-E11" to="-E10" fromLane="1" toLane="1" via=":J13_0_1" dir="s" state="M"/>
    <connection from="-E11" to="-E10" fromLane="1" toLane="2" via=":J13_0_2" dir="s" state="M"/>
    <connection from="-E3" to="-E9" fromLane="0" toLane="0" via=":3_0_0" dir="s" state="M"/>
    <connection from="-E3" to="-E9" fromLane="1" toLane="1" via=":3_0_1" dir="s" state="M"/>
    <connection from="-E3" to="-E9" fromLane="1" toLane="2" via=":3_0_2" dir="s" state="M"/>
    <connection from="-E4" to="E9" fromLane="0" toLane="0" via=":J8_5_0" tl="J8" linkIndex="5" dir="r" state="o"/>
    <connection from="-E4" to="E9" fromLane="1" toLane="1" via=":J8_5_1" tl="J8" linkIndex="6" dir="r" state="o"/>
    <connection from="-E4" to="L1" fromLane="1" toLane="1" via=":J8_7_0" tl="J8" linkIndex="7" dir="l" state="o"/>
    <connection from="-E4" to="L1" fromLane="2" toLane="2" via=":J8_7_1" tl="J8" linkIndex="8" dir="l" state="o"/>
    <connection from="-E7" to="-E5" fromLane="0" toLane="0" via=":J11_0_0" dir="s" state="M"/>
    <connection from="-E7" to="-E5" fromLane="1" toLane="1" via=":J11_0_1" dir="s" state="M"/>
    <connection from="-E7" to="-E5" fromLane="2" toLane="2" via=":J11_0_2" dir="s" state="M"/>
    <connection from="-E9" to="L1" fromLane="0" toLane="0" via=":J8_0_0" tl="J8" linkIndex="0" dir="s" state="O"/>
    <connection from="-E9" to="L1" fromLane="1" toLane="1" via=":J8_0_1" tl="J8" linkIndex="1" dir="s" state="O"/>
    <connection from="-E9" to="E4" fromLane="1" toLane="1" via=":J8_2_0" tl="J8" linkIndex="2" dir="l" state="o"/>
    <connection from="-E9" to="L1" fromLane="2" toLane="2" via=":J8_3_0" tl="J8" linkIndex="3" dir="s" state="O"/>
    <connection from="-E9" to="E4" fromLane="2" toLane="2" via=":J8_4_0" tl="J8" linkIndex="4" dir="l" state="o"/>
    <connection from="E10" to="E11" fromLane="0" toLane="0" via=":J13_3_0" dir="s" state="M"/>
    <connection from="E10" to="E11" fromLane="1" toLane="1" via=":J13_3_1" dir="s" state="M"/>
    <connection from="E10" to="E11" fromLane="2" toLane="2" via=":J13_3_2" dir="s" state="M"/>
    <connection from="E4" to="-E7" fromLane="0" toLane="0" via=":J9_0_0" dir="r" state="m"/>
    <connection from="E4" to="E10" fromLane="1" toLane="1" via=":J9_1_0" dir="l" state="m"/>
    <connection from="E4" to="E10" fromLane="2" toLane="2" via=":J9_1_1" dir="l" state="m"/>
    <connection from="E5" to="E7" fromLane="0" toLane="0" via=":J11_3_0" dir="s" state="M"/>
    <connection from="E5" to="E7" fromLane="1" toLane="1" via=":J11_3_1" dir="s" state="M"/>
    <connection from="E5" to="E7" fromLane="1" toLane="2" via=":J11_3_2" dir="s" state="M"/>
    <connection from="E7" to="E10" fromLane="0" toLane="0" via=":J9_7_0" dir="s" state="M"/>
    <connection from="E7" to="E10" fromLane="1" toLane="1" via=":J9_7_1" dir="s" state="M"/>
    <connection from="E7" to="E10" fromLane="2" toLane="2" via=":J9_7_2" dir="s" state="M"/>
    <connection from="E7" to="-E4" fromLane="2" toLane="1" via=":J9_10_0" dir="l" state="m"/>
    <connection from="E7" to="-E4" fromLane="2" toLane="2" via=":J9_10_1" dir="l" state="m"/>
    <connection from="E9" to="E3" fromLane="0" toLane="0" via=":3_3_0" dir="s" state="M"/>
    <connection from="E9" to="E3" fromLane="1" toLane="1" via=":3_3_1" dir="s" state="M"/>
    <connection from="E9" to="E3" fromLane="2" toLane="2" via=":3_3_2" dir="s" state="M"/>
    <connection from="L2" to="E4" fromLane="0" toLane="0" via=":J8_9_0" tl="J8" linkIndex="9" dir="r" state="O"/>
    <connection from="L2" to="E9" fromLane="0" toLane="0" via=":J8_10_0" tl="J8" linkIndex="10" dir="s" state="O"/>
    <connection from="L2" to="E4" fromLane="1" toLane="1" via=":J8_11_0" tl="J8" linkIndex="11" dir="r" state="o"/>
    <connection from="L2" to="E4" fromLane="1" toLane="2" via=":J8_11_1" tl="J8" linkIndex="12" dir="r" state="o"/>
    <connection from="L2" to="E9" fromLane="1" toLane="1" via=":J8_13_0" tl="J8" linkIndex="13" dir="s" state="O"/>
    <connection from="L2" to="E9" fromLane="2" toLane="2" via=":J8_13_1" tl="J8" linkIndex="14" dir="s" state="O"/>

    <connection from=":3_0" to="-E9" fromLane="0" toLane="0" dir="s" state="M"/>
    <connection from=":3_0" to="-E9" fromLane="1" toLane="1" dir="s" state="M"/>
    <connection from=":3_0" to="-E9" fromLane="2" toLane="2" dir="s" state="M"/>
    <connection from=":3_3" to="E3" fromLane="0" toLane="0" dir="s" state="M"/>
    <connection from=":3_3" to="E3" fromLane="1" toLane="1" dir="s" state="M"/>
    <connection from=":3_3" to="E3" fromLane="2" toLane="2" dir="s" state="M"/>
    <connection from=":J11_0" to="-E5" fromLane="0" toLane="0" dir="s" state="M"/>
    <connection from=":J11_0" to="-E5" fromLane="1" toLane="1" dir="s" state="M"/>
    <connection from=":J11_0" to="-E5" fromLane="2" toLane="2" dir="s" state="M"/>
    <connection from=":J11_3" to="E7" fromLane="0" toLane="0" dir="s" state="M"/>
    <connection from=":J11_3" to="E7" fromLane="1" toLane="1" dir="s" state="M"/>
    <connection from=":J11_3" to="E7" fromLane="2" toLane="2" dir="s" state="M"/>
    <connection from=":J13_0" to="-E10" fromLane="0" toLane="0" dir="s" state="M"/>
    <connection from=":J13_0" to="-E10" fromLane="1" toLane="1" dir="s" state="M"/>
    <connection from=":J13_0" to="-E10" fromLane="2" toLane="2" dir="s" state="M"/>
    <connection from=":J13_3" to="E11" fromLane="0" toLane="0" dir="s" state="M"/>
    <connection from=":J13_3" to="E11" fromLane="1" toLane="1" dir="s" state="M"/>
    <connection from=":J13_3" to="E11" fromLane="2" toLane="2" dir="s" state="M"/>
    <connection from=":J8_0" to="L1" fromLane="0" toLane="0" dir="s" state="M"/>
    <connection from=":J8_0" to="L1" fromLane="1" toLane="1" dir="s" state="M"/>
    <connection from=":J8_2" to="E4" fromLane="0" toLane="1" via=":J8_15_0" dir="l" state="m"/>
    <connection from=":J8_15" to="E4" fromLane="0" toLane="1" dir="l" state="M"/>
    <connection from=":J8_3" to="L1" fromLane="0" toLane="2" dir="s" state="M"/>
    <connection from=":J8_4" to="E4" fromLane="0" toLane="2" via=":J8_16_0" dir="l" state="m"/>
    <connection from=":J8_16" to="E4" fromLane="0" toLane="2" dir="l" state="M"/>
    <connection from=":J8_5" to="E9" fromLane="0" toLane="0" dir="r" state="M"/>
    <connection from=":J8_5" to="E9" fromLane="1" toLane="1" dir="r" state="M"/>
    <connection from=":J8_7" to="L1" fromLane="0" toLane="1" dir="l" state="M"/>
    <connection from=":J8_7" to="L1" fromLane="1" toLane="2" dir="l" state="M"/>
    <connection from=":J8_9" to="E4" fromLane="0" toLane="0" dir="r" state="M"/>
    <connection from=":J8_10" to="E9" fromLane="0" toLane="0" dir="s" state="M"/>
    <connection from=":J8_11" to="E4" fromLane="0" toLane="1" via=":J8_17_0" dir="r" state="m"/>
    <connection from=":J8_17" to="E4" fromLane="0" toLane="1" dir="r" state="M"/>
    <connection from=":J8_11" to="E4" fromLane="1" toLane="2" via=":J8_17_1" dir="r" state="m"/>