<routes>
    <vType id="car" accel="2.6" decel="4.5" sigma="0.5" length="5.0" minGap="2.5" maxSpeed="13.89" guiShape="passenger"/>

    <route id="n_s" edges="NI IS"/>
    <route id="s_n" edges="SI IN"/>
    <route id="e_w" edges="EI IW"/>
    <route id="w_e" edges="WI IE"/>

    <flow id="flow_ns" type="car" route="n_s" begin="0" end="1000" number="100" departLane="best"/>
    <flow id="flow_sn" type="car" route="s_n" begin="0" end="1000" number="100" departLane="best"/>
    <flow id="flow_ew" type="car" route="e_w" begin="0" end="1000" number="100" departLane="best"/>
    <flow id="flow_we" type="car" route="w_e" begin="0" end="1000" number="100" departLane="best"/>
</routes>